Version 4.1
SHEET 1 880 680
WIRE 320 64 192 64
WIRE 128 80 48 80
WIRE 320 96 320 64
WIRE 48 128 48 80
WIRE 192 128 192 64
WIRE 128 208 128 80
WIRE 144 208 128 208
WIRE 192 208 192 176
WIRE 320 208 320 176
WIRE 48 240 48 208
WIRE 192 288 192 224
FLAG 48 240 0
FLAG 320 208 0
FLAG 192 288 0
SYMBOL nmos4 144 128 R0
SYMATTR InstName M1
SYMATTR Value2 l=1000nm w=1000nm
SYMBOL voltage 48 112 R0
WINDOW 123 0 0 Left 0
WINDOW 39 0 0 Left 0
SYMATTR InstName VGS
SYMATTR Value 1.8
SYMBOL voltage 320 80 R0
WINDOW 123 0 0 Left 0
WINDOW 39 0 0 Left 0
SYMATTR InstName VDS
SYMATTR Value 1.8
TEXT -216 112 Left 2 !.dc VDS 0 1.8 0.1 VGS 0 1.8 0.2
