Version 4.1
SHEET 1 880 680
WIRE 224 32 96 32
WIRE 288 32 224 32
WIRE 416 32 368 32
WIRE 96 64 96 32
WIRE 416 64 416 32
WIRE 224 128 224 32
WIRE -80 176 -112 176
WIRE 16 176 16 112
WIRE 16 176 0 176
WIRE 96 176 96 144
WIRE 96 176 80 176
WIRE 160 176 96 176
WIRE -112 224 -112 176
WIRE 96 224 96 176
WIRE 224 256 224 224
WIRE 288 256 224 256
WIRE 416 256 416 208
WIRE 416 256 352 256
WIRE 224 272 224 256
WIRE 416 272 416 256
WIRE -112 352 -112 304
WIRE 96 368 96 304
WIRE 224 368 224 352
WIRE 224 368 96 368
WIRE 416 368 416 352
WIRE 416 368 224 368
WIRE 224 384 224 368
FLAG 416 64 0
FLAG 224 384 0
FLAG -112 352 0
FLAG 416 208 Vout
FLAG 16 112 Vin
SYMBOL npn 160 128 R0
SYMATTR InstName Q1
SYMATTR Value 2N2222
SYMBOL res 80 48 R0
SYMATTR InstName R1
SYMATTR Value 18k
SYMBOL voltage 272 32 R270
WINDOW 0 32 56 VTop 2
WINDOW 3 -32 56 VBottom 2
WINDOW 123 0 0 Left 0
WINDOW 39 0 0 Left 0
SYMATTR InstName V1
SYMATTR Value 10
SYMBOL res 80 208 R0
SYMATTR InstName R2
SYMATTR Value 51k
SYMBOL res 208 256 R0
SYMATTR InstName R3
SYMATTR Value 470
SYMBOL cap 352 240 R90
WINDOW 0 0 32 VBottom 2
WINDOW 3 32 32 VTop 2
SYMATTR InstName C1
SYMATTR Value 10µ
SYMBOL res 400 256 R0
SYMATTR InstName R4
SYMATTR Value 470
SYMBOL cap 80 160 R90
WINDOW 0 0 32 VBottom 2
WINDOW 3 32 32 VTop 2
SYMATTR InstName C2
SYMATTR Value 1µ
SYMBOL res 16 160 R90
WINDOW 0 0 56 VBottom 2
WINDOW 3 32 56 VTop 2
SYMATTR InstName R5
SYMATTR Value 1k
SYMBOL voltage -112 208 R0
WINDOW 123 24 124 Left 2
WINDOW 39 0 0 Left 0
SYMATTR InstName V2
SYMATTR Value ""
SYMATTR Value2 AC 1m
TEXT -144 408 Left 2 !.ac dec 1000 1 100G
