Version 4.1
SHEET 1 880 680
WIRE 128 32 0 32
WIRE 176 32 128 32
WIRE 272 32 256 32
WIRE 0 48 0 32
WIRE 272 64 272 32
WIRE 128 128 128 32
WIRE -192 208 -224 208
WIRE 0 208 0 128
WIRE 0 208 -48 208
WIRE 80 208 0 208
WIRE -224 240 -224 208
WIRE 128 240 128 224
WIRE 160 240 128 240
WIRE 240 240 160 240
WIRE 352 240 304 240
WIRE 0 256 0 208
WIRE 160 256 160 240
WIRE 352 256 352 240
WIRE -224 352 -224 320
WIRE 0 352 0 336
WIRE 0 352 -224 352
WIRE 160 352 160 336
WIRE 160 352 0 352
WIRE 352 352 352 336
WIRE 352 352 160 352
WIRE 160 368 160 352
FLAG 160 368 0
FLAG 272 64 0
FLAG 352 240 Vout
SYMBOL nmos 80 128 R0
SYMATTR InstName M1
SYMATTR Value SIJA72ADP
SYMBOL voltage 160 32 R270
WINDOW 0 32 56 VTop 2
WINDOW 3 -32 56 VBottom 2
SYMATTR InstName V1
SYMBOL res -16 32 R0
SYMATTR InstName R1
SYMBOL res -16 240 R0
SYMATTR InstName R2
SYMBOL res 144 240 R0
SYMATTR InstName R3
SYMBOL cap 304 224 R90
WINDOW 0 14 67 VBottom 2
WINDOW 3 32 32 VTop 2
SYMATTR InstName Cout
SYMBOL res 336 240 R0
SYMATTR InstName R4
SYMBOL cap -48 192 R90
WINDOW 0 0 32 VBottom 2
WINDOW 3 32 32 VTop 2
SYMATTR InstName C1
SYMBOL voltage -224 224 R0
SYMATTR InstName V2
SYMBOL res -96 192 R90
WINDOW 0 0 56 VBottom 2
WINDOW 3 32 56 VTop 2
SYMATTR InstName R5
